Version 4
SHEET 1 880 680
WIRE 16 128 16 96
WIRE 48 128 16 128
WIRE -272 160 -320 160
WIRE -128 160 -192 160
WIRE 16 160 -128 160
WIRE 48 160 16 160
WIRE 272 160 176 160
WIRE -128 192 -128 160
WIRE 48 192 0 192
WIRE 0 240 0 192
WIRE -128 384 -128 272
WIRE -128 480 -128 464
FLAG 16 160 in
FLAG 272 160 out
FLAG -400 160 0
FLAG 0 320 0
FLAG 16 96 0
FLAG -128 480 0
SYMBOL voltage 0 224 R0
WINDOW 0 24 96 Left 2
WINDOW 3 24 16 Left 2
WINDOW 123 0 0 Left 0
WINDOW 39 0 0 Left 0
SYMATTR InstName V1
SYMATTR Value 1.0315848982622384n
SYMBOL voltage -304 160 R90
WINDOW 0 -32 56 VBottom 2
WINDOW 3 -97 193 VTop 2
WINDOW 123 0 0 Left 0
WINDOW 39 0 0 Left 0
SYMATTR InstName V2
SYMATTR Value PULSE(0 2 0 0.5n 0.5n 0 1n)
SYMBOL schmitty 112 160 R0
SYMATTR InstName X1
SYMBOL res -144 176 R0
SYMATTR InstName R1
SYMATTR Value 100
SYMBOL bv -128 368 R0
SYMATTR InstName B1
SYMATTR Value V=white(2e12*time)/8
SYMBOL res -176 144 R90
WINDOW 0 0 56 VBottom 2
WINDOW 3 32 56 VTop 2
SYMATTR InstName R2
SYMATTR Value 100
TEXT -672 120 Left 2 !.tran 0 1.2n 0 2p
TEXT -672 32 Left 2 !.temp -23.13319663174279n
