Version 4
SHEET 1 880 680
WIRE -16 160 0 144
WIRE 16 160 0 144
FLAG 128 240 0
FLAG 0 144 in
FLAG 272 160 out
FLAG -96 160 0
FLAG 128 0 0
SYMBOL inv_20_10 48 96 R0
SYMATTR InstName X1
SYMBOL voltage 128 96 R180
WINDOW 0 24 96 Left 2
WINDOW 3 24 16 Left 2
WINDOW 123 0 0 Left 0
WINDOW 39 0 0 Left 0
SYMATTR InstName V1
SYMATTR Value 1
SYMBOL voltage 0 160 R90
WINDOW 0 -32 56 VBottom 2
WINDOW 3 32 56 VTop 2
WINDOW 123 0 0 Left 0
WINDOW 39 0 0 Left 0
SYMATTR InstName V2
SYMATTR Value PULSE(0 1 0 10n 1p 10n 20n)
TEXT -228 264 Left 2 !.tran 0 10n 0 0.001n
